/*--------------------------------*- C++ -*----------------------------------*\
| =========                 |                                                 |
| \\      /  F ield         | OpenFOAM: The Open Source CFD Toolbox           |
|  \\    /   O peration     | Version:  v2012                                 |
|   \\  /    A nd           | Website:  www.openfoam.com                      |
|    \\/     M anipulation  |                                                 |
\*---------------------------------------------------------------------------*/
FoamFile
{
    version     2.0;
    format      ascii;
    class       dictionary;
    location    "system";
    object      fvSolution;
}

// * * * * * * * * * * * * * * * * * * * * * * * * * * * * * * * * * * * * * //

solvers
{
    "(rho|rhoFinal)"
    {
        solver          PCG;
        preconditioner  DIC;
        tolerance       1e-06;
        relTol          0;
    };


    p
    {
        solver              GAMG;
        tolerance           1e-6;
        relTol              0.01;
        smoother            GaussSeidel;
        cacheAgglomeration  true;
        nCellsInCoarsestLevel   10;
        agglomerator    faceAreaPair;
        mergeLevels     1;
    };

    pFinal
    {
        $p;
        tolerance           1e-6;
        relTol              0;
    };

    "(U|Yi|k|h|omega)"
    {
        solver          PBiCGStab;
        preconditioner  DILU;
        tolerance       1e-6;
        relTol          0.1;
        nSweeps         1;
    };

    "(U|Yi|k|h|omega)Final"
    {
        $U;
        relTol          0;
    };

    Ii
    {
        solver                  GAMG;
        tolerance               1e-5;
        relTol                  0;
        smoother                symGaussSeidel;
        cacheAgglomeration      true;
        nCellsInCoarsestLevel   10;
        agglomerator            faceAreaPair;
        mergeLevels             1;
        maxIter                 1;
    }
}

PIMPLE
{
    momentumPredictor yes;
    nOuterCorrectors  2;
    nCorrectors       2;
    nNonOrthogonalCorrectors 0;
}

relaxationFactors
{
    equations
    {
        "(U|k).*"                   1;
        "(CH4|O2|H2O|CO2|h).*"    1;
    }
}

// ************************************************************************* //
